<?xml version="1.0" encoding="UTF-8"?>

<!-- generated on 2024-05-22 12:31:33.198137 by osmWebWizard.py v1_20_0+0002-343658e7c64
<configuration>
    <net-file value="C:\Users\jkjan\OneDrive\Namizje\Simulacija-20240306T101345Z-001\Simulacija\Sim_list\2024-05-22-12-30-57\osm.net.xml.gz"/>
    <output-trip-file value="C:\Users\jkjan\OneDrive\Namizje\Simulacija-20240306T101345Z-001\Simulacija\Sim_list\2024-05-22-12-30-57\osm.passenger.trips.xml"/>
    <route-file value="C:\Users\jkjan\OneDrive\Namizje\Simulacija-20240306T101345Z-001\Simulacija\Sim_list\2024-05-22-12-30-57\osm.passenger.rou.xml"/>
    <prefix value="veh"/>
    <trip-attributes value="departLane=&quot;best&quot;"/>
    <fringe-start-attributes value="departSpeed=&quot;max&quot;"/>
    <vehicle-class value="passenger"/>
    <lanes value="True"/>
    <fringe-factor value="5"/>
    <allow-fringe.min-length value="1000.0"/>
    <via-edge-types value="highway.motorway,highway.motorway_link,highway.trunk_link,highway.primary_link,highway.secondary_link,highway.tertiary_link"/>
    <min-distance value="300.0"/>
    <min-distance.fringe value="10.0"/>
    <remove-loops value="True"/>
    <validate value="True"/>
    <insertion-density value="12.0"/>
</configuration>
-->

<!-- generated on 2024-05-22 12:31:33 by Eclipse SUMO duarouter Version 1.20.0
<configuration xmlns:xsi="http://www.w3.org/2001/XMLSchema-instance" xsi:noNamespaceSchemaLocation="http://sumo.dlr.de/xsd/duarouterConfiguration.xsd">

    <input>
        <net-file value="C:\Users\jkjan\OneDrive\Namizje\Simulacija-20240306T101345Z-001\Simulacija\Sim_list\2024-05-22-12-30-57\osm.net.xml.gz"/>
        <route-files value="C:\Users\jkjan\OneDrive\Namizje\Simulacija-20240306T101345Z-001\Simulacija\Sim_list\2024-05-22-12-30-57\osm.passenger.trips.xml"/>
    </input>

    <output>
        <output-file value="C:\Users\jkjan\OneDrive\Namizje\Simulacija-20240306T101345Z-001\Simulacija\Sim_list\2024-05-22-12-30-57\osm.passenger.trips.xml.tmp"/>
        <alternatives-output value="NUL"/>
        <write-trips value="true"/>
    </output>

    <processing>
        <remove-loops value="true"/>
    </processing>

    <time>
        <begin value="0.0"/>
        <end value="3600.0"/>
    </time>

    <report>
        <no-warnings value="true"/>
        <ignore-errors value="true"/>
        <no-step-log value="true"/>
    </report>

</configuration>
-->

<routes xmlns:xsi="http://www.w3.org/2001/XMLSchema-instance" xsi:noNamespaceSchemaLocation="http://sumo.dlr.de/xsd/routes_file.xsd">
    <vType id="veh_passenger" vClass="passenger"/>
    <trip id="veh0" type="veh_passenger" depart="0.00" departLane="best" from="233833576#0" to="-1115641285#1"/>
    <trip id="veh1" type="veh_passenger" depart="10.79" departLane="best" from="375311154#1" to="328426208#0"/>
    <trip id="veh3" type="veh_passenger" depart="32.38" departLane="best" from="1123184404#0" to="1127595983"/>
    <trip id="veh4" type="veh_passenger" depart="43.17" departLane="best" departSpeed="max" from="236092221#0" to="168935757#2"/>
    <trip id="veh6" type="veh_passenger" depart="64.76" departLane="best" from="-4402014#3" to="-1105574289#0"/>
    <trip id="veh7" type="veh_passenger" depart="75.55" departLane="best" from="-4402014#2" to="330840125#1"/>
    <trip id="veh8" type="veh_passenger" depart="86.35" departLane="best" from="1040940511" to="-35557143#4"/>
    <trip id="veh9" type="veh_passenger" depart="97.14" departLane="best" departSpeed="max" from="-136571494" to="155186522#1"/>
    <trip id="veh10" type="veh_passenger" depart="107.93" departLane="best" from="-4402014#3" to="375311154#0"/>
    <trip id="veh11" type="veh_passenger" depart="118.72" departLane="best" from="147066248#4" to="753730627#0"/>
    <trip id="veh12" type="veh_passenger" depart="129.52" departLane="best" from="-1105574291#2" to="169999355#1"/>
    <trip id="veh13" type="veh_passenger" depart="140.31" departLane="best" from="4610610#1" to="24509317#0"/>
    <trip id="veh14" type="veh_passenger" depart="151.10" departLane="best" from="-4611714#2" to="196850609#1"/>
    <trip id="veh15" type="veh_passenger" depart="161.90" departLane="best" from="326116286#0" to="-1136657259#0"/>
    <trip id="veh16" type="veh_passenger" depart="172.69" departLane="best" from="-1190781965" to="4611714#3"/>
    <trip id="veh17" type="veh_passenger" depart="183.48" departLane="best" from="-147066248#5" to="-874528353#0"/>
    <trip id="veh18" type="veh_passenger" depart="194.28" departLane="best" from="1102369946" to="-4611693#0"/>
    <trip id="veh20" type="veh_passenger" depart="215.86" departLane="best" from="1116358457#1" to="1126244314#0"/>
    <trip id="veh21" type="veh_passenger" depart="226.66" departLane="best" from="882389494#1" to="292429056#1"/>
    <trip id="veh22" type="veh_passenger" depart="237.45" departLane="best" from="15973619#7" to="328426208#0"/>
    <trip id="veh23" type="veh_passenger" depart="248.24" departLane="best" from="4611699#1" to="375311158#1"/>
    <trip id="veh24" type="veh_passenger" depart="259.04" departLane="best" from="-4402014#2" to="-1127597264#0"/>
    <trip id="veh25" type="veh_passenger" depart="269.83" departLane="best" from="-66071366#3" to="-681299267#0"/>
    <trip id="veh26" type="veh_passenger" depart="280.62" departLane="best" from="4611722#1" to="1105574292#0"/>
    <trip id="veh27" type="veh_passenger" depart="291.41" departLane="best" departSpeed="max" from="236092221#0" to="-1126465845"/>
    <trip id="veh28" type="veh_passenger" depart="302.21" departLane="best" departSpeed="max" from="16374191" to="66071366#3"/>
    <trip id="veh29" type="veh_passenger" depart="313.00" departLane="best" from="340498982#0" to="4611723"/>
    <trip id="veh30" type="veh_passenger" depart="323.79" departLane="best" departSpeed="max" from="884209962#0" to="147066248#7"/>
    <trip id="veh31" type="veh_passenger" depart="334.59" departLane="best" departSpeed="max" from="-136571494" to="-1136657265#0"/>
    <trip id="veh32" type="veh_passenger" depart="345.38" departLane="best" departSpeed="max" from="-153698380#2" to="251884680#1"/>
    <trip id="veh33" type="veh_passenger" depart="356.17" departLane="best" departSpeed="max" from="43348945" to="114667396"/>
    <trip id="veh34" type="veh_passenger" depart="366.97" departLane="best" from="-1151333057#1" to="1126244314#1"/>
    <trip id="veh35" type="veh_passenger" depart="377.76" departLane="best" departSpeed="max" from="884209962#0" to="15973619#5"/>
    <trip id="veh36" type="veh_passenger" depart="388.55" departLane="best" from="753730627#1" to="4611707#1"/>
    <trip id="veh37" type="veh_passenger" depart="399.35" departLane="best" from="4610610#1" to="35557161#1"/>
    <trip id="veh38" type="veh_passenger" depart="410.14" departLane="best" from="251884680#0" to="168515533#2"/>
    <trip id="veh39" type="veh_passenger" depart="420.93" departLane="best" from="-4611708#2" to="-1190781962#0"/>
    <trip id="veh40" type="veh_passenger" depart="431.73" departLane="best" departSpeed="max" from="-153698380#2" to="1151326817#2"/>
    <trip id="veh42" type="veh_passenger" depart="453.31" departLane="best" from="4611722#0" to="-66071366#3"/>
    <trip id="veh43" type="veh_passenger" depart="464.10" departLane="best" from="1170522572#0" to="-43376693#1"/>
    <trip id="veh44" type="veh_passenger" depart="474.90" departLane="best" from="-47755711#0" to="4611712#0"/>
    <trip id="veh46" type="veh_passenger" depart="496.48" departLane="best" from="4611722#1" to="4588222#1"/>
    <trip id="veh47" type="veh_passenger" depart="507.28" departLane="best" from="-47755711#4" to="-1151333058#1"/>
    <trip id="veh48" type="veh_passenger" depart="518.07" departLane="best" from="-1228446781#2" to="1238797610#1"/>
    <trip id="veh49" type="veh_passenger" depart="528.86" departLane="best" from="1159149106#0" to="375311157#0"/>
    <trip id="veh50" type="veh_passenger" depart="539.66" departLane="best" from="375312063#2" to="-23755739#0"/>
    <trip id="veh51" type="veh_passenger" depart="550.45" departLane="best" from="1136657266#2" to="340498982#0"/>
    <trip id="veh52" type="veh_passenger" depart="561.24" departLane="best" from="1123184404#1" to="-4611693#3"/>
    <trip id="veh53" type="veh_passenger" depart="572.04" departLane="best" from="147066248#7" to="375311154#0"/>
    <trip id="veh54" type="veh_passenger" depart="582.83" departLane="best" from="-375311153#1" to="1105574291#0"/>
    <trip id="veh55" type="veh_passenger" depart="593.62" departLane="best" departSpeed="max" from="884209962#0" to="304627753#1"/>
    <trip id="veh57" type="veh_passenger" depart="615.21" departLane="best" from="-15973619#4" to="-4611710#2"/>
    <trip id="veh59" type="veh_passenger" depart="636.79" departLane="best" from="-4402014#2" to="-4611708#1"/>
    <trip id="veh60" type="veh_passenger" depart="647.59" departLane="best" from="-1159156576#0" to="25945760#1"/>
    <trip id="veh62" type="veh_passenger" depart="669.17" departLane="best" from="4611714#0" to="-1190781962#0"/>
    <trip id="veh63" type="veh_passenger" depart="679.97" departLane="best" from="4588222#1" to="328426208#0"/>
    <trip id="veh64" type="veh_passenger" depart="690.76" departLane="best" departSpeed="max" from="-43156537" to="-23755961#1"/>
    <trip id="veh65" type="veh_passenger" depart="701.55" departLane="best" from="541763977#1" to="196850607#2"/>
    <trip id="veh66" type="veh_passenger" depart="712.35" departLane="best" from="1136657263#2" to="375312063#0"/>
    <trip id="veh67" type="veh_passenger" depart="723.14" departLane="best" from="-147066248#1" to="1151326817#0"/>
    <trip id="veh68" type="veh_passenger" depart="733.93" departLane="best" from="1123184404#1" to="-120675240#2"/>
    <trip id="veh69" type="veh_passenger" depart="744.73" departLane="best" from="375311153#0" to="328426208#0"/>
    <trip id="veh70" type="veh_passenger" depart="755.52" departLane="best" from="-1132162834#0" to="15973619#2"/>
    <trip id="veh71" type="veh_passenger" depart="766.31" departLane="best" from="1113726463" to="1119935327#1"/>
    <trip id="veh72" type="veh_passenger" depart="777.11" departLane="best" from="-4611714#2" to="4773029#3"/>
    <trip id="veh73" type="veh_passenger" depart="787.90" departLane="best" from="-330840125#1" to="-1126465703#0"/>
    <trip id="veh74" type="veh_passenger" depart="798.69" departLane="best" from="375312063#2" to="-874528353#1"/>
    <trip id="veh75" type="veh_passenger" depart="809.48" departLane="best" departSpeed="max" from="1126245113" to="4611708#0"/>
    <trip id="veh76" type="veh_passenger" depart="820.28" departLane="best" from="15973619#2" to="1136657266#2"/>
    <trip id="veh77" type="veh_passenger" depart="831.07" departLane="best" from="884209962#2" to="4610524#0"/>
    <trip id="veh78" type="veh_passenger" depart="841.86" departLane="best" from="753730627#0" to="47755711#0"/>
    <trip id="veh79" type="veh_passenger" depart="852.66" departLane="best" from="4611708#1" to="1151333057#2"/>
    <trip id="veh80" type="veh_passenger" depart="863.45" departLane="best" from="-1151326817#1" to="4611696#2"/>
    <trip id="veh81" type="veh_passenger" depart="874.24" departLane="best" from="1111982484#1" to="-1151333058#1"/>
    <trip id="veh82" type="veh_passenger" depart="885.04" departLane="best" from="-4611708#1" to="375312063#0"/>
    <trip id="veh83" type="veh_passenger" depart="895.83" departLane="best" from="1126465703#1" to="114667396"/>
    <trip id="veh84" type="veh_passenger" depart="906.62" departLane="best" from="68647306#3" to="882389494#1"/>
    <trip id="veh85" type="veh_passenger" depart="917.42" departLane="best" from="-15973619#6" to="-35557143#2"/>
    <trip id="veh86" type="veh_passenger" depart="928.21" departLane="best" from="-24509317#0" to="109902441"/>
    <trip id="veh87" type="veh_passenger" depart="939.00" departLane="best" from="753730627#0" to="199847247#0"/>
    <trip id="veh89" type="veh_passenger" depart="960.59" departLane="best" departSpeed="max" from="-114667396" to="199847247#2"/>
    <trip id="veh90" type="veh_passenger" depart="971.38" departLane="best" from="1170522572#0" to="4611696#5"/>
    <trip id="veh91" type="veh_passenger" depart="982.17" departLane="best" from="-24509318" to="681299268#1"/>
    <trip id="veh92" type="veh_passenger" depart="992.97" departLane="best" from="-1195383150#1" to="4402014#1"/>
    <trip id="veh93" type="veh_passenger" depart="1003.76" departLane="best" from="191556835#0" to="328426208#0"/>
    <trip id="veh94" type="veh_passenger" depart="1014.55" departLane="best" from="-4588219#1" to="202817674#5"/>
    <trip id="veh96" type="veh_passenger" depart="1036.14" departLane="best" from="188386313#1" to="-24509317#1"/>
    <trip id="veh98" type="veh_passenger" depart="1057.73" departLane="best" from="1151333057#2" to="342968607#1"/>
    <trip id="veh99" type="veh_passenger" depart="1068.52" departLane="best" from="-4588222#1" to="1127595983"/>
    <trip id="veh100" type="veh_passenger" depart="1079.31" departLane="best" from="24242882#1" to="1101961674#1"/>
    <trip id="veh101" type="veh_passenger" depart="1090.11" departLane="best" from="-66071366#5" to="375311157#0"/>
    <trip id="veh102" type="veh_passenger" depart="1100.90" departLane="best" from="-1171295120#0" to="1187575246"/>
    <trip id="veh103" type="veh_passenger" depart="1111.69" departLane="best" departSpeed="max" from="884209962#0" to="882389494#1"/>
    <trip id="veh105" type="veh_passenger" depart="1133.28" departLane="best" from="1102369945#1" to="35557161#2"/>
    <trip id="veh108" type="veh_passenger" depart="1165.66" departLane="best" departSpeed="max" from="236092221#0" to="-1105574289#1"/>
    <trip id="veh109" type="veh_passenger" depart="1176.45" departLane="best" from="4588222#1" to="1101961674#1"/>
    <trip id="veh110" type="veh_passenger" depart="1187.24" departLane="best" departSpeed="max" from="23755739#0" to="505475201"/>
    <trip id="veh111" type="veh_passenger" depart="1198.04" departLane="best" departSpeed="max" from="-169999355#2" to="202817674#1"/>
    <trip id="veh112" type="veh_passenger" depart="1208.83" departLane="best" from="340498988#0" to="4610607#1"/>
    <trip id="veh114" type="veh_passenger" depart="1230.42" departLane="best" from="4611707#1" to="-147066248#8"/>
    <trip id="veh115" type="veh_passenger" depart="1241.21" departLane="best" from="1123184404#1" to="840229277#1"/>
    <trip id="veh116" type="veh_passenger" depart="1252.00" departLane="best" departSpeed="max" from="-1101961674#1" to="375311157#0"/>
    <trip id="veh117" type="veh_passenger" depart="1262.80" departLane="best" from="23017853" to="66071366#2"/>
    <trip id="veh118" type="veh_passenger" depart="1273.59" departLane="best" from="375311154#3" to="169999355#1"/>
    <trip id="veh119" type="veh_passenger" depart="1284.38" departLane="best" from="1123184404#2" to="-1105574291#1"/>
    <trip id="veh120" type="veh_passenger" depart="1295.18" departLane="best" from="1176516118#1" to="4611714#8"/>
    <trip id="veh121" type="veh_passenger" depart="1305.97" departLane="best" from="4611693#2" to="199847247#2"/>
    <trip id="veh122" type="veh_passenger" depart="1316.76" departLane="best" from="-23017852#2" to="-23755739#0"/>
    <trip id="veh123" type="veh_passenger" depart="1327.55" departLane="best" from="-505475202#0" to="4611723"/>
    <trip id="veh124" type="veh_passenger" depart="1338.35" departLane="best" departSpeed="max" from="43348945" to="4611707#1"/>
    <trip id="veh125" type="veh_passenger" depart="1349.14" departLane="best" from="47707171#2" to="-4611693#1"/>
    <trip id="veh127" type="veh_passenger" depart="1370.73" departLane="best" from="1116358457#1" to="24509318"/>
    <trip id="veh128" type="veh_passenger" depart="1381.52" departLane="best" from="-24509317#0" to="47755711#3"/>
    <trip id="veh129" type="veh_passenger" depart="1392.31" departLane="best" from="-4611714#4" to="753730627#1"/>
    <trip id="veh130" type="veh_passenger" depart="1403.11" departLane="best" from="-4588217#1" to="4611714#7"/>
    <trip id="veh131" type="veh_passenger" depart="1413.90" departLane="best" from="-1115641285#1" to="375311154#3"/>
    <trip id="veh132" type="veh_passenger" depart="1424.69" departLane="best" from="831860725#0" to="47755711#4"/>
    <trip id="veh133" type="veh_passenger" depart="1435.49" departLane="best" from="43376693#4" to="4611708#2"/>
    <trip id="veh134" type="veh_passenger" depart="1446.28" departLane="best" from="-4588217#1" to="66514478"/>
    <trip id="veh135" type="veh_passenger" depart="1457.07" departLane="best" from="43231842#1" to="-168935756#1"/>
    <trip id="veh136" type="veh_passenger" depart="1467.87" departLane="best" from="4611718#1" to="-4611706#1"/>
    <trip id="veh137" type="veh_passenger" depart="1478.66" departLane="best" from="1127602092#1" to="-1102369945#1"/>
    <trip id="veh138" type="veh_passenger" depart="1489.45" departLane="best" departSpeed="max" from="43348945" to="4611711#1"/>
    <trip id="veh139" type="veh_passenger" depart="1500.25" departLane="best" from="753316506#1" to="4611708#2"/>
    <trip id="veh140" type="veh_passenger" depart="1511.04" departLane="best" from="753730627#0" to="-874528353#1"/>
    <trip id="veh141" type="veh_passenger" depart="1521.83" departLane="best" departSpeed="max" from="236092221#0" to="1127601410"/>
    <trip id="veh142" type="veh_passenger" depart="1532.62" departLane="best" from="82488125#2" to="168515533#2"/>
    <trip id="veh143" type="veh_passenger" depart="1543.42" departLane="best" from="753730627#1" to="-43376693#1"/>
    <trip id="veh144" type="veh_passenger" depart="1554.21" departLane="best" from="753316505#1" to="-474362271"/>
    <trip id="veh145" type="veh_passenger" depart="1565.00" departLane="best" departSpeed="max" from="-153698380#2" to="1151326817#2"/>
    <trip id="veh146" type="veh_passenger" depart="1575.80" departLane="best" from="-375311153#0" to="1105574291#2"/>
    <trip id="veh147" type="veh_passenger" depart="1586.59" departLane="best" from="196850608#2" to="153698380#1"/>
    <trip id="veh150" type="veh_passenger" depart="1618.97" departLane="best" departSpeed="max" from="-1101961674#1" to="4773464#1"/>
    <trip id="veh151" type="veh_passenger" depart="1629.76" departLane="best" from="147066248#6" to="-35557143#4"/>
    <trip id="veh152" type="veh_passenger" depart="1640.56" departLane="best" from="375311154#4" to="328426208#0"/>
    <trip id="veh153" type="veh_passenger" depart="1651.35" departLane="best" departSpeed="max" from="108488061" to="-1187575246"/>
    <trip id="veh154" type="veh_passenger" depart="1662.14" departLane="best" departSpeed="max" from="23755739#0" to="1111982484#1"/>
    <trip id="veh155" type="veh_passenger" depart="1672.94" departLane="best" from="342968607#1" to="1101961674#1"/>
    <trip id="veh156" type="veh_passenger" depart="1683.73" departLane="best" from="-505475202#0" to="1136657260#1"/>
    <trip id="veh157" type="veh_passenger" depart="1694.52" departLane="best" from="-15973619#9" to="114667396"/>
    <trip id="veh158" type="veh_passenger" depart="1705.31" departLane="best" from="4773029#3" to="24242882#1"/>
    <trip id="veh159" type="veh_passenger" depart="1716.11" departLane="best" from="1126234503#0" to="199847247#0"/>
    <trip id="veh160" type="veh_passenger" depart="1726.90" departLane="best" departSpeed="max" from="236092221#0" to="120359703"/>
    <trip id="veh161" type="veh_passenger" depart="1737.69" departLane="best" from="1136657263#2" to="4611724"/>
    <trip id="veh162" type="veh_passenger" depart="1748.49" departLane="best" departSpeed="max" from="43348945" to="389101365#1"/>
    <trip id="veh163" type="veh_passenger" depart="1759.28" departLane="best" from="120675240#4" to="153698380#1"/>
    <trip id="veh164" type="veh_passenger" depart="1770.07" departLane="best" from="23017852#0" to="1116358457#1"/>
    <trip id="veh166" type="veh_passenger" depart="1791.66" departLane="best" from="-375311153#0" to="-1115641285#1"/>
    <trip id="veh167" type="veh_passenger" depart="1802.45" departLane="best" departSpeed="max" from="4610524#1" to="1228609316#1"/>
    <trip id="veh168" type="veh_passenger" depart="1813.25" departLane="best" from="4611708#2" to="42102542#1"/>
    <trip id="veh169" type="veh_passenger" depart="1824.04" departLane="best" from="1119935543#0" to="25945760#0"/>
    <trip id="veh170" type="veh_passenger" depart="1834.83" departLane="best" from="35557161#1" to="328426208#0"/>
    <trip id="veh171" type="veh_passenger" depart="1845.63" departLane="best" from="1155762025#0" to="461526153#0"/>
    <trip id="veh172" type="veh_passenger" depart="1856.42" departLane="best" departSpeed="max" from="236092221#0" to="-1102369962#0"/>
    <trip id="veh173" type="veh_passenger" depart="1867.21" departLane="best" departSpeed="max" from="-153698380#2" to="114667396"/>
    <trip id="veh174" type="veh_passenger" depart="1878.00" departLane="best" departSpeed="max" from="-326116285" to="66071379#1"/>
    <trip id="veh175" type="veh_passenger" depart="1888.80" departLane="best" from="120675240#4" to="1136657266#1"/>
    <trip id="veh176" type="veh_passenger" depart="1899.59" departLane="best" from="-43156728#1" to="43156537"/>
    <trip id="veh177" type="veh_passenger" depart="1910.38" departLane="best" from="191556835#0" to="625843709"/>
    <trip id="veh179" type="veh_passenger" depart="1931.97" departLane="best" from="342968607#1" to="147066248#3"/>
    <trip id="veh180" type="veh_passenger" depart="1942.76" departLane="best" from="4610612#0" to="169195795#0"/>
    <trip id="veh182" type="veh_passenger" depart="1964.35" departLane="best" from="1136657266#2" to="-52328295#0"/>
    <trip id="veh183" type="veh_passenger" depart="1975.14" departLane="best" from="-4610607#0" to="28251222#0"/>
    <trip id="veh184" type="veh_passenger" depart="1985.94" departLane="best" from="375312063#2" to="155186522#1"/>
    <trip id="veh185" type="veh_passenger" depart="1996.73" departLane="best" from="-1187575246" to="1040940511"/>
    <trip id="veh186" type="veh_passenger" depart="2007.52" departLane="best" from="-4611711#0" to="110786129#1"/>
    <trip id="veh187" type="veh_passenger" depart="2018.32" departLane="best" from="147066248#8" to="-24913267#2"/>
    <trip id="veh188" type="veh_passenger" depart="2029.11" departLane="best" from="-4402014#3" to="328426208#0"/>
    <trip id="veh189" type="veh_passenger" depart="2039.90" departLane="best" from="-330840125#1" to="-1159156576#0"/>
    <trip id="veh190" type="veh_passenger" depart="2050.69" departLane="best" from="1116360587#1" to="168935756#0"/>
    <trip id="veh191" type="veh_passenger" depart="2061.49" departLane="best" from="1123184403" to="-4610612#0"/>
    <trip id="veh192" type="veh_passenger" depart="2072.28" departLane="best" from="1123184404#0" to="4611724"/>
    <trip id="veh193" type="veh_passenger" depart="2083.07" departLane="best" from="340498982#0" to="328426208#0"/>
    <trip id="veh194" type="veh_passenger" depart="2093.87" departLane="best" from="-4611711#1" to="375311157#0"/>
    <trip id="veh195" type="veh_passenger" depart="2104.66" departLane="best" from="1105574292#1" to="-1102369962#0"/>
    <trip id="veh196" type="veh_passenger" depart="2115.45" departLane="best" from="1077923225#0" to="375311157#0"/>
    <trip id="veh197" type="veh_passenger" depart="2126.25" departLane="best" from="15971197" to="23017852#2"/>
    <trip id="veh198" type="veh_passenger" depart="2137.04" departLane="best" from="-43231842#3" to="-4611708#0"/>
    <trip id="veh199" type="veh_passenger" depart="2147.83" departLane="best" from="-1233798019" to="1127595983"/>
    <trip id="veh200" type="veh_passenger" depart="2158.63" departLane="best" from="-874528353#0" to="328426208#0"/>
    <trip id="veh201" type="veh_passenger" depart="2169.42" departLane="best" from="1115641285#1" to="375311158#2"/>
    <trip id="veh202" type="veh_passenger" depart="2180.21" departLane="best" from="-840229277#0" to="-23755739#0"/>
    <trip id="veh203" type="veh_passenger" depart="2191.01" departLane="best" from="-1126465703#0" to="304627753#0"/>
    <trip id="veh204" type="veh_passenger" depart="2201.80" departLane="best" departSpeed="max" from="-169999355#2" to="1195383150#1"/>
    <trip id="veh205" type="veh_passenger" depart="2212.59" departLane="best" from="-1136657266#1" to="1126244314#0"/>
    <trip id="veh206" type="veh_passenger" depart="2223.38" departLane="best" departSpeed="max" from="-43156537" to="1110751835#2"/>
    <trip id="veh207" type="veh_passenger" depart="2234.18" departLane="best" from="375312063#0" to="1126244314#0"/>
    <trip id="veh208" type="veh_passenger" depart="2244.97" departLane="best" from="375311156#2" to="4588222#1"/>
    <trip id="veh209" type="veh_passenger" depart="2255.76" departLane="best" from="-4610612#0" to="-147066248#0"/>
    <trip id="veh210" type="veh_passenger" depart="2266.56" departLane="best" from="-1110748916#1" to="168515533#4"/>
    <trip id="veh211" type="veh_passenger" depart="2277.35" departLane="best" from="884209962#2" to="1119936840#1"/>
    <trip id="veh212" type="veh_passenger" depart="2288.14" departLane="best" departSpeed="max" from="236092221#0" to="375312063#0"/>
    <trip id="veh213" type="veh_passenger" depart="2298.94" departLane="best" departSpeed="max" from="236092221#0" to="375311157#0"/>
    <trip id="veh214" type="veh_passenger" depart="2309.73" departLane="best" from="66071373#1" to="4610524#0"/>
    <trip id="veh215" type="veh_passenger" depart="2320.52" departLane="best" from="-1110750064" to="1190781963#1"/>
    <trip id="veh216" type="veh_passenger" depart="2331.32" departLane="best" from="15973619#9" to="328426208#0"/>
    <trip id="veh217" type="veh_passenger" depart="2342.11" departLane="best" departSpeed="max" from="16374191" to="-4611706#1"/>
    <trip id="veh219" type="veh_passenger" depart="2363.70" departLane="best" from="375311156#0" to="194069450#0"/>
    <trip id="veh220" type="veh_passenger" depart="2374.49" departLane="best" from="-4588224#0" to="68647306#4"/>
    <trip id="veh221" type="veh_passenger" depart="2385.28" departLane="best" departSpeed="max" from="-153698380#2" to="-1126465423"/>
    <trip id="veh222" type="veh_passenger" depart="2396.07" departLane="best" from="-66071366#1" to="328426208#0"/>
    <trip id="veh223" type="veh_passenger" depart="2406.87" departLane="best" from="68647306#4" to="1127595983"/>
    <trip id="veh224" type="veh_passenger" depart="2417.66" departLane="best" from="340498988#0" to="-120675240#3"/>
    <trip id="veh225" type="veh_passenger" depart="2428.45" departLane="best" from="292429056#3" to="251884680#1"/>
    <trip id="veh226" type="veh_passenger" depart="2439.25" departLane="best" from="-147066248#5" to="375311157#0"/>
    <trip id="veh227" type="veh_passenger" depart="2450.04" departLane="best" from="-15973619#4" to="82488124#2"/>
    <trip id="veh229" type="veh_passenger" depart="2471.63" departLane="best" from="1123184404#2" to="1126234503#0"/>
    <trip id="veh230" type="veh_passenger" depart="2482.42" departLane="best" from="4611708#2" to="4402014#3"/>
    <trip id="veh231" type="veh_passenger" depart="2493.21" departLane="best" from="-147066248#8" to="681299268#1"/>
    <trip id="veh232" type="veh_passenger" depart="2504.01" departLane="best" from="23017852#2" to="4588219#3"/>
    <trip id="veh233" type="veh_passenger" depart="2514.80" departLane="best" from="330840125#1" to="1151326817#2"/>
    <trip id="veh234" type="veh_passenger" depart="2525.59" departLane="best" from="375311154#0" to="68647306#5"/>
    <trip id="veh235" type="veh_passenger" depart="2536.39" departLane="best" from="4611710#2" to="43231842#2"/>
    <trip id="veh236" type="veh_passenger" depart="2547.18" departLane="best" from="147066248#6" to="1228609316#1"/>
    <trip id="veh237" type="veh_passenger" depart="2557.97" departLane="best" from="1126237668#1" to="375311154#0"/>
    <trip id="veh238" type="veh_passenger" depart="2568.76" departLane="best" from="4611710#1" to="4611696#4"/>
    <trip id="veh239" type="veh_passenger" depart="2579.56" departLane="best" from="4610612#0" to="-147066248#4"/>
    <trip id="veh240" type="veh_passenger" depart="2590.35" departLane="best" from="4611722#3" to="461526153#0"/>
    <trip id="veh242" type="veh_passenger" depart="2611.94" departLane="best" from="1105574292#0" to="-1126465845"/>
    <trip id="veh244" type="veh_passenger" depart="2633.52" departLane="best" from="-1228446781#2" to="35557143#3"/>
    <trip id="veh245" type="veh_passenger" depart="2644.32" departLane="best" from="292429056#3" to="304627753#0"/>
    <trip id="veh246" type="veh_passenger" depart="2655.11" departLane="best" from="1151333057#2" to="389101365#1"/>
    <trip id="veh247" type="veh_passenger" depart="2665.90" departLane="best" departSpeed="max" from="-136571494" to="-4611708#2"/>
    <trip id="veh248" type="veh_passenger" depart="2676.70" departLane="best" from="147066248#0" to="114667396"/>
    <trip id="veh249" type="veh_passenger" depart="2687.49" departLane="best" from="375311156#0" to="1111982484#1"/>
    <trip id="veh250" type="veh_passenger" depart="2698.28" departLane="best" from="326116286#0" to="753316506#1"/>
    <trip id="veh251" type="veh_passenger" depart="2709.08" departLane="best" from="-4610612#0" to="-23017852#0"/>
    <trip id="veh252" type="veh_passenger" depart="2719.87" departLane="best" from="35557143#2" to="202817674#5"/>
    <trip id="veh253" type="veh_passenger" depart="2730.66" departLane="best" from="147066248#4" to="375311157#0"/>
    <trip id="veh254" type="veh_passenger" depart="2741.45" departLane="best" departSpeed="max" from="-326116285" to="4611696#5"/>
    <trip id="veh255" type="veh_passenger" depart="2752.25" departLane="best" from="1151326815" to="35557161#4"/>
    <trip id="veh256" type="veh_passenger" depart="2763.04" departLane="best" from="191556835#1" to="15973619#1"/>