<routes>
    <vType id="avto" accel="1" decel="5" sigma="0.5" length="5" maxSpeed="90"/>

   <vehicle id="1.1" type="avto" depart="0" color="red">
      <route edges="1 2 9"/>
    </vehicle>
    <vehicle id="1.2" type="avto" depart="0" color="red">
      <route edges="1 3 6 9"/>
    </vehicle>
    <vehicle id="1.3" type="avto" depart="0" color="red">
      <route edges="1 3 8 11"/>
    </vehicle>
    <vehicle id="2.4" type="avto" depart="0" color="blue">
      <route edges="4 7 10 11"/>
    </vehicle>
    <vehicle id="2.5" type="avto" depart="0" color="blue">
      <route edges="4 5 6 9"/>
    </vehicle>
    <vehicle id="2.6" type="avto" depart="0" color="blue">
      <route edges="4 5 8 11"/>
    </vehicle>
    <vehicle id="3.1" type="avto" depart="0" color="green">
      <route edges="5 6 9"/>
    </vehicle>
    <vehicle id="3.2" type="avto" depart="0" color="green">
      <route edges="5 8 11"/>
    </vehicle>
    <vehicle id="4.3" type="avto" depart="0" color="green">
      <route edges="7 10 11"/>
    </vehicle>
    <vehicle id="5.1" type="avto" depart="0" color="white">
      <route edges="10 11"/>
    </vehicle>
    <vehicle id="6.1" type="avto" depart="0" color="orange">
      <route edges="11"/>
    </vehicle>
    <vehicle id="7.1" type="avto" depart="0" color="green">
      <route edges="2 9"/>
    </vehicle>
    <vehicle id="7.2" type="avto" depart="0" color="green">
      <route edges="3 6 9"/>
    </vehicle>
    <vehicle id="7.3" type="avto" depart="0" color="green">
      <route edges="3 8 11"/>
    </vehicle>
    <vehicle id="8.1" type="avto" depart="0" color="green">
      <route edges="5 6 9"/>
    </vehicle>
    <vehicle id="8.2" type="avto" depart="0" color="green">
      <route edges="5 8 11"/>
    </vehicle>


</routes>