<nodes>
    <node id="N1" x="-250.0" y="250.0" />
    <node id="N2" x="0.0" y="250.0" />
    <node id="N3" x="-250.0" y="0.0" />
    <node id="N4" x="0.0" y="0.0" />
    <node id="N5" x="250.0" y="0.0" />
    <node id="N6" x="-250.0" y="-250.0" />
    <node id="N7" x="0.0" y="-250.0" />
    <node id="N8" x="250.0" y="-250.0" />
</nodes>